<?xml version="1.0" encoding="utf-8"?>
<PreferenceScreen xmlns:android="http://schemas.android.com/apk/res/android">


    <!-- Status bar tweaks -->
    
    <PreferenceCategory
        android:key="status_bar_general"
        android:title="Status Bar Mods">

      <net.margaritov.preference.colorpicker.ColorPickerPreference
         android:key="statusbar_background_color"
         android:title="@string/statusbar_background_color"
         android:defaultValue="#000000"
         alphaSlider="true" />

      <CheckBoxPreference
         android:key="statusbar_brightness_slider"
         android:title="@string/statusbar_brightness_slider_title"
         android:summary="@string/statusbar_brightness_slider_summary"
         android:defaultValue="true" />

    
      <net.margaritov.preference.colorpicker.ColorPickerPreference
         android:key="expanded_clock_color"
         android:title="@string/expanded_clock_color_title"
         android:defaultValue="@android:color/holo_blue_light" />

    
        </PreferenceCategory>

</PreferenceScreen>

